2723698
  -OEChem-07312209593D

 12 12  0     0  0  0  0  0  0999 V2000
   -2.6671    0.0203    0.0005 S   0  0  0  0  0  0  0  0  0  0  0  0
   -0.2605    1.1666   -0.0002 N   0  0  0  0  0  0  0  0  0  0  0  0
   -0.9894   -0.0119   -0.0005 C   0  0  0  0  0  0  0  0  0  0  0  0
   -0.1825   -1.2720   -0.0004 C   0  0  0  0  0  0  0  0  0  0  0  0
    1.1122    1.2086    0.0001 C   0  0  0  0  0  0  0  0  0  0  0  0
    1.1558   -1.1927    0.0003 C   0  0  0  0  0  0  0  0  0  0  0  0
    1.8316    0.0810    0.0002 C   0  0  0  0  0  0  0  0  0  0  0  0
   -0.7578    2.0523   -0.0001 H   0  0  0  0  0  0  0  0  0  0  0  0
   -0.6887   -2.2307   -0.0005 H   0  0  0  0  0  0  0  0  0  0  0  0
    1.5610    2.1936    0.0002 H   0  0  0  0  0  0  0  0  0  0  0  0
    1.7639   -2.0906    0.0005 H   0  0  0  0  0  0  0  0  0  0  0  0
    2.9148    0.0993    0.0005 H   0  0  0  0  0  0  0  0  0  0  0  0
  1  3  2  0  0  0  0
  2  3  1  0  0  0  0
  2  5  1  0  0  0  0
  2  8  1  0  0  0  0
  3  4  1  0  0  0  0
  4  6  2  0  0  0  0
  4  9  1  0  0  0  0
  5  7  2  0  0  0  0
  5 10  1  0  0  0  0
  6  7  1  0  0  0  0
  6 11  1  0  0  0  0
  7 12  1  0  0  0  0
M  END
> <PUBCHEM_COMPOUND_CID>
2723698

> <PUBCHEM_CONFORMER_RMSD>
0.4

> <PUBCHEM_CONFORMER_DIVERSEORDER>
1

> <PUBCHEM_MMFF94_PARTIAL_CHARGES>
12
1 -0.38
10 0.15
11 0.15
12 0.15
2 -0.54
3 0.43
4 -0.14
5 -0.04
6 -0.15
7 -0.15
8 0.37
9 0.15

> <PUBCHEM_EFFECTIVE_ROTOR_COUNT>
0

> <PUBCHEM_PHARMACOPHORE_FEATURES>
2
1 1 acceptor
6 2 3 4 5 6 7 rings

> <PUBCHEM_HEAVY_ATOM_COUNT>
7

> <PUBCHEM_ATOM_DEF_STEREO_COUNT>
0

> <PUBCHEM_ATOM_UDEF_STEREO_COUNT>
0

> <PUBCHEM_BOND_DEF_STEREO_COUNT>
0

> <PUBCHEM_BOND_UDEF_STEREO_COUNT>
0

> <PUBCHEM_ISOTOPIC_ATOM_COUNT>
0

> <PUBCHEM_COMPONENT_COUNT>
1

> <PUBCHEM_CACTVS_TAUTO_COUNT>
2

> <PUBCHEM_CONFORMER_ID>
00298F7200000001

> <PUBCHEM_MMFF94_ENERGY>
14.0691

> <PUBCHEM_FEATURE_SELFOVERLAP>
10.148

> <PUBCHEM_SHAPE_FINGERPRINT>
18185500 45 18341889671471082527
20096714 4 18339361984311760906
21040471 1 18266458904513139652
23552423 10 17901117312810975806
29004967 10 18334299747041573849

> <PUBCHEM_SHAPE_MULTIPOLES>
142.93
2.84
1.41
0.62
1.75
0.06
0
-0.14
0
-0.41
0
0.03
0.01
0

> <PUBCHEM_SHAPE_SELFOVERLAP>
279.375

> <PUBCHEM_SHAPE_VOLUME>
86.8

> <PUBCHEM_COORDINATE_TYPE>
2
5
10

$$$$
