161111
  -OEChem-07292204503D

 53 52  0     0  0  0  0  0  0999 V2000
    6.0175   -1.7727   -0.0750 S   0  0  0  0  0  0  0  0  0  0  0  0
    6.1126   -1.4821   -1.5048 O   0  5  0  0  0  0  0  0  0  0  0  0
    7.2967   -2.0036    0.5942 O   0  0  0  0  0  0  0  0  0  0  0  0
    4.9501   -2.7002    0.2967 O   0  0  0  0  0  0  0  0  0  0  0  0
    2.2605    1.8601   -0.0285 N   0  3  0  0  0  0  0  0  0  0  0  0
    1.2788    0.7623    0.1342 C   0  0  0  0  0  0  0  0  0  0  0  0
    3.6077    1.4891    0.6087 C   0  0  0  0  0  0  0  0  0  0  0  0
   -0.1447    1.2782   -0.0460 C   0  0  0  0  0  0  0  0  0  0  0  0
    2.5047    2.1603   -1.5147 C   0  0  0  0  0  0  0  0  0  0  0  0
    1.7574    3.1480    0.6399 C   0  0  0  0  0  0  0  0  0  0  0  0
   -1.2129    0.1997    0.1618 C   0  0  0  0  0  0  0  0  0  0  0  0
    4.1325    0.1819    0.0303 C   0  0  0  0  0  0  0  0  0  0  0  0
   -2.6449    0.7348    0.0557 C   0  0  0  0  0  0  0  0  0  0  0  0
   -3.7146   -0.3513    0.1908 C   0  0  0  0  0  0  0  0  0  0  0  0
    5.4750   -0.2391    0.6121 C   0  0  0  0  0  0  0  0  0  0  0  0
   -5.1195    0.2282    0.0015 C   0  0  0  0  0  0  0  0  0  0  0  0
   -6.1866   -0.8644    0.0980 C   0  0  0  0  0  0  0  0  0  0  0  0
   -7.6156   -0.3351   -0.0532 C   0  0  0  0  0  0  0  0  0  0  0  0
   -8.6771   -1.4357   -0.0305 C   0  0  0  0  0  0  0  0  0  0  0  0
  -10.0775   -0.8584   -0.1711 C   0  0  0  0  0  0  0  0  0  0  0  0
    1.3878    0.3527    1.1462 H   0  0  0  0  0  0  0  0  0  0  0  0
    1.4882   -0.0300   -0.5932 H   0  0  0  0  0  0  0  0  0  0  0  0
    3.4425    1.4005    1.6892 H   0  0  0  0  0  0  0  0  0  0  0  0
    4.3061    2.3145    0.4271 H   0  0  0  0  0  0  0  0  0  0  0  0
   -0.2770    1.7103   -1.0444 H   0  0  0  0  0  0  0  0  0  0  0  0
   -0.3861    2.0556    0.6857 H   0  0  0  0  0  0  0  0  0  0  0  0
    3.3557    2.8427   -1.5989 H   0  0  0  0  0  0  0  0  0  0  0  0
    1.6103    2.6385   -1.9246 H   0  0  0  0  0  0  0  0  0  0  0  0
    2.6895    1.2292   -2.0553 H   0  0  0  0  0  0  0  0  0  0  0  0
    0.9384    3.5809    0.0587 H   0  0  0  0  0  0  0  0  0  0  0  0
    2.5856    3.8649    0.6469 H   0  0  0  0  0  0  0  0  0  0  0  0
    1.4661    2.9179    1.6692 H   0  0  0  0  0  0  0  0  0  0  0  0
   -1.0668   -0.5935   -0.5818 H   0  0  0  0  0  0  0  0  0  0  0  0
   -1.0772   -0.2617    1.1479 H   0  0  0  0  0  0  0  0  0  0  0  0
    3.4200   -0.6284    0.2142 H   0  0  0  0  0  0  0  0  0  0  0  0
    4.2473    0.2592   -1.0547 H   0  0  0  0  0  0  0  0  0  0  0  0
   -2.8035    1.4976    0.8279 H   0  0  0  0  0  0  0  0  0  0  0  0
   -2.7633    1.2364   -0.9130 H   0  0  0  0  0  0  0  0  0  0  0  0
   -3.6359   -0.8232    1.1775 H   0  0  0  0  0  0  0  0  0  0  0  0
   -3.5368   -1.1331   -0.5575 H   0  0  0  0  0  0  0  0  0  0  0  0
    6.2440    0.5110    0.3998 H   0  0  0  0  0  0  0  0  0  0  0  0
    5.4059   -0.3685    1.6972 H   0  0  0  0  0  0  0  0  0  0  0  0
   -5.1894    0.7201   -0.9762 H   0  0  0  0  0  0  0  0  0  0  0  0
   -5.3076    0.9938    0.7639 H   0  0  0  0  0  0  0  0  0  0  0  0
   -6.0970   -1.3767    1.0640 H   0  0  0  0  0  0  0  0  0  0  0  0
   -5.9999   -1.6176   -0.6778 H   0  0  0  0  0  0  0  0  0  0  0  0
   -7.8174    0.3824    0.7518 H   0  0  0  0  0  0  0  0  0  0  0  0
   -7.6936    0.2189   -0.9971 H   0  0  0  0  0  0  0  0  0  0  0  0
   -8.6098   -1.9963    0.9089 H   0  0  0  0  0  0  0  0  0  0  0  0
   -8.4942   -2.1448   -0.8461 H   0  0  0  0  0  0  0  0  0  0  0  0
  -10.1854   -0.3165   -1.1162 H   0  0  0  0  0  0  0  0  0  0  0  0
  -10.8215   -1.6610   -0.1527 H   0  0  0  0  0  0  0  0  0  0  0  0
  -10.3017   -0.1684    0.6486 H   0  0  0  0  0  0  0  0  0  0  0  0
  1  2  1  0  0  0  0
  1  3  2  0  0  0  0
  1  4  2  0  0  0  0
  1 15  1  0  0  0  0
  5  6  1  0  0  0  0
  5  7  1  0  0  0  0
  5  9  1  0  0  0  0
  5 10  1  0  0  0  0
  6  8  1  0  0  0  0
  6 21  1  0  0  0  0
  6 22  1  0  0  0  0
  7 12  1  0  0  0  0
  7 23  1  0  0  0  0
  7 24  1  0  0  0  0
  8 11  1  0  0  0  0
  8 25  1  0  0  0  0
  8 26  1  0  0  0  0
  9 27  1  0  0  0  0
  9 28  1  0  0  0  0
  9 29  1  0  0  0  0
 10 30  1  0  0  0  0
 10 31  1  0  0  0  0
 10 32  1  0  0  0  0
 11 13  1  0  0  0  0
 11 33  1  0  0  0  0
 11 34  1  0  0  0  0
 12 15  1  0  0  0  0
 12 35  1  0  0  0  0
 12 36  1  0  0  0  0
 13 14  1  0  0  0  0
 13 37  1  0  0  0  0
 13 38  1  0  0  0  0
 14 16  1  0  0  0  0
 14 39  1  0  0  0  0
 14 40  1  0  0  0  0
 15 41  1  0  0  0  0
 15 42  1  0  0  0  0
 16 17  1  0  0  0  0
 16 43  1  0  0  0  0
 16 44  1  0  0  0  0
 17 18  1  0  0  0  0
 17 45  1  0  0  0  0
 17 46  1  0  0  0  0
 18 19  1  0  0  0  0
 18 47  1  0  0  0  0
 18 48  1  0  0  0  0
 19 20  1  0  0  0  0
 19 49  1  0  0  0  0
 19 50  1  0  0  0  0
 20 51  1  0  0  0  0
 20 52  1  0  0  0  0
 20 53  1  0  0  0  0
M  CHG  2   2  -1   5   1
M  END
> <PUBCHEM_COMPOUND_CID>
161111

> <PUBCHEM_CONFORMER_RMSD>
1.4

> <PUBCHEM_CONFORMER_DIVERSEORDER>
1
36
12
10
2
43
9
44
11
7
27
45
34
15
28
31
21
30
22
38
4
6
33
20
8
25
39
24
14
40
42
17
13
41
37
29
18
3
19
35
16
5
26
23
32

> <PUBCHEM_MMFF94_PARTIAL_CHARGES>
10
1 1.34
10 0.5
15 0.11
2 -0.82
3 -0.82
4 -0.82
5 -1.01
6 0.5
7 0.5
9 0.5

> <PUBCHEM_EFFECTIVE_ROTOR_COUNT>
13

> <PUBCHEM_PHARMACOPHORE_FEATURES>
6
1 2 acceptor
1 20 hydrophobe
1 3 acceptor
1 4 acceptor
1 5 cation
4 1 2 3 4 anion

> <PUBCHEM_HEAVY_ATOM_COUNT>
20

> <PUBCHEM_ATOM_DEF_STEREO_COUNT>
0

> <PUBCHEM_ATOM_UDEF_STEREO_COUNT>
0

> <PUBCHEM_BOND_DEF_STEREO_COUNT>
0

> <PUBCHEM_BOND_UDEF_STEREO_COUNT>
0

> <PUBCHEM_ISOTOPIC_ATOM_COUNT>
0

> <PUBCHEM_COMPONENT_COUNT>
1

> <PUBCHEM_CACTVS_TAUTO_COUNT>
1

> <PUBCHEM_CONFORMER_ID>
0002755700000001

> <PUBCHEM_MMFF94_ENERGY>
33.842

> <PUBCHEM_FEATURE_SELFOVERLAP>
30.515

> <PUBCHEM_SHAPE_FINGERPRINT>
10 15 12607402195785445879
10066227 49 18409729561124003427
10666366 153 18114455696298946093
11211813 74 11963390765134890935
11386260 185 17240765142190265157
11638347 137 15123515791504519590
125118 31 9655587309498362087
12592606 108 18411419497246541707
13533116 47 18272087231832888048
13668630 136 18334010601685938587
13685833 64 18410573968609885616
14202775 3 18263365945454261635
14216079 64 18409729556285242899
14251757 52 9007062357570688447
15690457 1 18202279213095134551
1768 124 17989204832930917070
20165401 70 18272084989638965679
20397935 70 17846782893093684110
20621476 38 18412263939351164071
21095123 145 14056725648391308329
21150785 3 13190337972671295891
21267235 1 18411700971695725137
21315759 40 18201723985840674889
21315763 28 18341894122101797041
22224240 67 12103847861182603733
28498 318 18408038516555881165
328311 84 18186804703894391579
33532 11 18410572903479452347
4340502 62 13901911102625215980
445580 126 8718828661388093126
465052 167 18201720622786271820
5283156 175 18273497880066602379
59682541 52 17385734607861363284
59755656 215 17603863390990843635
6438161 24 18408038515648831706
77188 2 18412262818803634704

> <PUBCHEM_SHAPE_MULTIPOLES>
392.85
27.89
2.66
0.89
57.9
0.47
0.27
-22.8
0.77
-5.86
-0.04
-1.13
0.17
-0.04

> <PUBCHEM_SHAPE_SELFOVERLAP>
715.434

> <PUBCHEM_SHAPE_VOLUME>
252.5

> <PUBCHEM_COORDINATE_TYPE>
2
5
10

$$$$
