350491
  -OEChem-08022208143D

 15 14  0     0  0  0  0  0  0999 V2000
   -0.9349   -1.4419   -0.3197 F   0  0  0  0  0  0  0  0  0  0  0  0
   -1.9327   -0.0211    1.0136 F   0  0  0  0  0  0  0  0  0  0  0  0
   -1.8073    0.3814   -1.1184 F   0  0  0  0  0  0  0  0  0  0  0  0
    0.1675    1.8158    0.3784 O   0  0  0  0  0  0  0  0  0  0  0  0
    1.3600   -0.1464    0.0370 N   0  0  0  0  0  0  0  0  0  0  0  0
    0.1897    0.6055    0.1375 C   0  0  0  0  0  0  0  0  0  0  0  0
    1.4862   -1.5635    0.3667 C   0  0  0  0  0  0  0  0  0  0  0  0
    2.5840    0.4914   -0.4320 C   0  0  0  0  0  0  0  0  0  0  0  0
   -1.1126   -0.1211   -0.0631 C   0  0  0  0  0  0  0  0  0  0  0  0
    1.4181   -2.1475   -0.5551 H   0  0  0  0  0  0  0  0  0  0  0  0
    0.7083   -1.8676    1.0716 H   0  0  0  0  0  0  0  0  0  0  0  0
    2.4573   -1.7410    0.8393 H   0  0  0  0  0  0  0  0  0  0  0  0
    3.3157    0.4927    0.3810 H   0  0  0  0  0  0  0  0  0  0  0  0
    2.3955    1.5214   -0.7471 H   0  0  0  0  0  0  0  0  0  0  0  0
    2.9756   -0.0749   -1.2821 H   0  0  0  0  0  0  0  0  0  0  0  0
  1  9  1  0  0  0  0
  2  9  1  0  0  0  0
  3  9  1  0  0  0  0
  4  6  2  0  0  0  0
  5  6  1  0  0  0  0
  5  7  1  0  0  0  0
  5  8  1  0  0  0  0
  6  9  1  0  0  0  0
  7 10  1  0  0  0  0
  7 11  1  0  0  0  0
  7 12  1  0  0  0  0
  8 13  1  0  0  0  0
  8 14  1  0  0  0  0
  8 15  1  0  0  0  0
M  END
> <PUBCHEM_COMPOUND_CID>
350491

> <PUBCHEM_CONFORMER_RMSD>
0.4

> <PUBCHEM_CONFORMER_DIVERSEORDER>
1
2

> <PUBCHEM_MMFF94_PARTIAL_CHARGES>
9
1 -0.34
2 -0.34
3 -0.34
4 -0.57
5 -0.66
6 0.57
7 0.3
8 0.3
9 1.08

> <PUBCHEM_EFFECTIVE_ROTOR_COUNT>
2

> <PUBCHEM_PHARMACOPHORE_FEATURES>
1
1 4 acceptor

> <PUBCHEM_HEAVY_ATOM_COUNT>
9

> <PUBCHEM_ATOM_DEF_STEREO_COUNT>
0

> <PUBCHEM_ATOM_UDEF_STEREO_COUNT>
0

> <PUBCHEM_BOND_DEF_STEREO_COUNT>
0

> <PUBCHEM_BOND_UDEF_STEREO_COUNT>
0

> <PUBCHEM_ISOTOPIC_ATOM_COUNT>
0

> <PUBCHEM_COMPONENT_COUNT>
1

> <PUBCHEM_CACTVS_TAUTO_COUNT>
1

> <PUBCHEM_CONFORMER_ID>
0005591B00000001

> <PUBCHEM_MMFF94_ENERGY>
19.5843

> <PUBCHEM_FEATURE_SELFOVERLAP>
5.074

> <PUBCHEM_SHAPE_FINGERPRINT>
15310529 11 17313105258770266602
16714656 1 18272664428076350052
18185500 45 18412542124066525298
21040471 1 18411411791674130042
23552423 10 18189900820673429246
24536 1 18116710716705113170
29004967 10 18187092757990879328

> <PUBCHEM_SHAPE_MULTIPOLES>
152.54
2.77
1.48
0.82
0.66
0.12
0.04
0.02
0.28
0.35
-0.15
-0.29
-0.04
-0.13

> <PUBCHEM_SHAPE_SELFOVERLAP>
292.794

> <PUBCHEM_SHAPE_VOLUME>
95.1

> <PUBCHEM_COORDINATE_TYPE>
2
5
10

$$$$
