15928
  -OEChem-08032202163D

 18 18  0     0  0  0  0  0  0999 V2000
    0.5382    0.0000   -0.2864 N   0  3  0  0  0  0  0  0  0  0  0  0
    1.9715    0.0000   -0.5649 C   0  0  0  0  0  0  0  0  0  0  0  0
   -0.0960    1.1741   -0.1632 C   0  0  0  0  0  0  0  0  0  0  0  0
   -0.0958   -1.1741   -0.1634 C   0  0  0  0  0  0  0  0  0  0  0  0
    2.7394    0.0001    0.7418 C   0  0  0  0  0  0  0  0  0  0  0  0
   -1.4579    1.2044    0.1010 C   0  0  0  0  0  0  0  0  0  0  0  0
   -1.4576   -1.2045    0.1013 C   0  0  0  0  0  0  0  0  0  0  0  0
   -2.1419   -0.0001    0.2338 C   0  0  0  0  0  0  0  0  0  0  0  0
    2.2138   -0.8828   -1.1670 H   0  0  0  0  0  0  0  0  0  0  0  0
    2.2137    0.8828   -1.1671 H   0  0  0  0  0  0  0  0  0  0  0  0
    0.4921    2.0773   -0.2729 H   0  0  0  0  0  0  0  0  0  0  0  0
    0.4924   -2.0772   -0.2733 H   0  0  0  0  0  0  0  0  0  0  0  0
    2.4998    0.8841    1.3416 H   0  0  0  0  0  0  0  0  0  0  0  0
    3.8166    0.0001    0.5493 H   0  0  0  0  0  0  0  0  0  0  0  0
    2.4998   -0.8838    1.3417 H   0  0  0  0  0  0  0  0  0  0  0  0
   -1.9796    2.1500    0.2035 H   0  0  0  0  0  0  0  0  0  0  0  0
   -1.9790   -2.1501    0.2040 H   0  0  0  0  0  0  0  0  0  0  0  0
   -3.2078   -0.0002    0.4414 H   0  0  0  0  0  0  0  0  0  0  0  0
  1  2  1  0  0  0  0
  1  3  2  0  0  0  0
  1  4  1  0  0  0  0
  2  5  1  0  0  0  0
  2  9  1  0  0  0  0
  2 10  1  0  0  0  0
  3  6  1  0  0  0  0
  3 11  1  0  0  0  0
  4  7  2  0  0  0  0
  4 12  1  0  0  0  0
  5 13  1  0  0  0  0
  5 14  1  0  0  0  0
  5 15  1  0  0  0  0
  6  8  2  0  0  0  0
  6 16  1  0  0  0  0
  7  8  1  0  0  0  0
  7 17  1  0  0  0  0
  8 18  1  0  0  0  0
M  CHG  1   1   1
M  END
> <PUBCHEM_COMPOUND_CID>
15928

> <PUBCHEM_CONFORMER_RMSD>
0.4

> <PUBCHEM_CONFORMER_DIVERSEORDER>
1
2

> <PUBCHEM_MMFF94_PARTIAL_CHARGES>
12
1 -0.21
11 0.15
12 0.15
16 0.15
17 0.15
18 0.15
2 0.49
3 0.21
4 0.21
6 -0.15
7 -0.15
8 -0.15

> <PUBCHEM_EFFECTIVE_ROTOR_COUNT>
1

> <PUBCHEM_PHARMACOPHORE_FEATURES>
1
6 1 3 4 6 7 8 rings

> <PUBCHEM_HEAVY_ATOM_COUNT>
8

> <PUBCHEM_ATOM_DEF_STEREO_COUNT>
0

> <PUBCHEM_ATOM_UDEF_STEREO_COUNT>
0

> <PUBCHEM_BOND_DEF_STEREO_COUNT>
0

> <PUBCHEM_BOND_UDEF_STEREO_COUNT>
0

> <PUBCHEM_ISOTOPIC_ATOM_COUNT>
0

> <PUBCHEM_COMPONENT_COUNT>
1

> <PUBCHEM_CACTVS_TAUTO_COUNT>
1

> <PUBCHEM_CONFORMER_ID>
00003E3800000001

> <PUBCHEM_MMFF94_ENERGY>
17.0653

> <PUBCHEM_FEATURE_SELFOVERLAP>
5.074

> <PUBCHEM_SHAPE_FINGERPRINT>
10857977 72 18341325694967606728
15310529 11 16588311617366770933
16714656 1 18410581686064736239
18185500 45 18188773967030470422
20645464 45 17917706903391035618
21040471 1 18266468598280765565
23552423 10 17898577737144956932
29004967 10 16558757810132833342
369184 2 18412535514080032978
5084963 1 18271254824009798580

> <PUBCHEM_SHAPE_MULTIPOLES>
159.66
3.24
1.34
0.74
1.71
0
-0.03
0
-0.6
-0.57
0.02
0.25
0
0

> <PUBCHEM_SHAPE_SELFOVERLAP>
321.387

> <PUBCHEM_SHAPE_VOLUME>
94.7

> <PUBCHEM_COORDINATE_TYPE>
2
5
10

$$$$
