582056
  Marvin  12310715553D          

 34 36  0  0  0  0            999 V2000
    2.5768    0.9839   -0.5589 F   0  0  0  0  0  0  0  0  0  0  0  0
   -2.9311   -0.6971    0.2904 F   0  0  0  0  0  0  0  0  0  0  0  0
   -1.5064   -0.7112   -2.6040 F   0  0  0  0  0  0  0  0  0  0  0  0
   -1.9733    2.2705   -0.2502 F   0  0  0  0  0  0  0  0  0  0  0  0
    1.2486   -0.0218    2.4068 F   0  0  0  0  0  0  0  0  0  0  0  0
    2.1118   -1.7647    0.2619 F   0  0  0  0  0  0  0  0  0  0  0  0
   -1.2317    4.8505   -0.5267 F   0  0  0  0  0  0  0  0  0  0  0  0
    0.1539   -0.7151    4.7643 F   0  0  0  0  0  0  0  0  0  0  0  0
    2.8905   -3.6855   -1.4347 F   0  0  0  0  0  0  0  0  0  0  0  0
    3.2716    3.5568   -0.8427 F   0  0  0  0  0  0  0  0  0  0  0  0
   -4.0090   -1.3591    2.6813 F   0  0  0  0  0  0  0  0  0  0  0  0
   -0.7049   -2.6798   -4.2844 F   0  0  0  0  0  0  0  0  0  0  0  0
    1.3851    5.5006   -0.8093 F   0  0  0  0  0  0  0  0  0  0  0  0
   -2.4695   -1.3836    4.9147 F   0  0  0  0  0  0  0  0  0  0  0  0
    1.4977   -4.1549   -3.7098 F   0  0  0  0  0  0  0  0  0  0  0  0
    0.2737    1.5303   -0.3774 C   0  0  0  0  0  0  0  0  0  0  0  0
   -0.8008   -0.3631    1.2668 C   0  0  0  0  0  0  0  0  0  0  0  0
    0.2832   -1.1518   -1.1242 C   0  0  0  0  0  0  0  0  0  0  0  0
    1.6325    1.8867   -0.5472 C   0  0  0  0  0  0  0  0  0  0  0  0
   -2.1703   -0.7036    1.3543 C   0  0  0  0  0  0  0  0  0  0  0  0
   -0.4428   -1.4117   -2.3086 C   0  0  0  0  0  0  0  0  0  0  0  0
   -0.7041    2.5528   -0.3892 C   0  0  0  0  0  0  0  0  0  0  0  0
   -0.0160   -0.3543    2.4426 C   0  0  0  0  0  0  0  0  0  0  0  0
    1.4143   -1.9499   -0.8282 C   0  0  0  0  0  0  0  0  0  0  0  0
   -0.3274    3.9054   -0.5356 C   0  0  0  0  0  0  0  0  0  0  0  0
   -0.5830   -0.7081    3.6837 C   0  0  0  0  0  0  0  0  0  0  0  0
    1.8316   -2.9674   -1.7095 C   0  0  0  0  0  0  0  0  0  0  0  0
    2.0113    3.2365   -0.6978 C   0  0  0  0  0  0  0  0  0  0  0  0
   -2.7414   -1.0472    2.5985 C   0  0  0  0  0  0  0  0  0  0  0  0
   -0.0329   -2.4379   -3.1887 C   0  0  0  0  0  0  0  0  0  0  0  0
    1.0312    4.2477   -0.6849 C   0  0  0  0  0  0  0  0  0  0  0  0
   -1.9460   -1.0557    3.7621 C   0  0  0  0  0  0  0  0  0  0  0  0
    1.1077   -3.2111   -2.8926 C   0  0  0  0  0  0  0  0  0  0  0  0
   -0.1309    0.0127   -0.1225 B   0  0  0  0  0  0  0  0  0  0  0  0
  1 19  1  0  0  0  0
  2 20  1  0  0  0  0
  3 21  1  0  0  0  0
  4 22  1  0  0  0  0
  5 23  1  0  0  0  0
  6 24  1  0  0  0  0
  7 25  1  0  0  0  0
  8 26  1  0  0  0  0
  9 27  1  0  0  0  0
 10 28  1  0  0  0  0
 11 29  1  0  0  0  0
 12 30  1  0  0  0  0
 13 31  1  0  0  0  0
 14 32  1  0  0  0  0
 15 33  1  0  0  0  0
 16 19  2  0  0  0  0
 16 22  1  0  0  0  0
 16 34  1  0  0  0  0
 17 20  2  0  0  0  0
 17 23  1  0  0  0  0
 17 34  1  0  0  0  0
 18 21  2  0  0  0  0
 18 24  1  0  0  0  0
 18 34  1  0  0  0  0
 19 28  1  0  0  0  0
 20 29  1  0  0  0  0
 21 30  1  0  0  0  0
 22 25  2  0  0  0  0
 23 26  2  0  0  0  0
 24 27  2  0  0  0  0
 25 31  1  0  0  0  0
 26 32  1  0  0  0  0
 27 33  1  0  0  0  0
 28 31  2  0  0  0  0
 29 32  2  0  0  0  0
 30 33  2  0  0  0  0
M  END

> <PUBCHEM_BONDANNOTATIONS>
16  19  8
16  22  8
17  20  8
17  23  8
18  21  8
18  24  8
19  28  8
20  29  8
21  30  8
22  25  8
23  26  8
24  27  8
25  31  8
26  32  8
27  33  8
28  31  8
29  32  8
30  33  8

> <StdInChI>
InChI=1S/C18BF15/c20-4-1(5(21)11(27)16(32)10(4)26)19(2-6(22)12(28)17(33)13(29)7(2)23)3-8(24)14(30)18(34)15(31)9(3)25

> <StdInChIKey>
OBAJXDYVZBHCGT-UHFFFAOYSA-N

> <AuxInfo>
1/0/N:16,17,18,19,22,20,23,21,24,28,25,29,26,30,27,31,32,33,34,1,4,2,5,3,6,10,7,11,8,12,9,13,14,15/E:(1,2,3)(4,5,6,7,8,9)(10,11,12,13,14,15)(16,17,18)(20,21,22,23,24,25)(26,27,28,29,30,31)(32,33,34)/rA:34nFFFFFFFFFFFFFFFCCCCCCCCCCCCCCCCCCB/rB:;;;;;;;;;;;;;;;;;s1d16;s2d17;s3d18;s4s16;s5s17;s6s18;s7d22;s8d23;s9d24;s10s19;s11s20;s12s21;s13s25d28;s14s26d29;s15s27d30;s16s17s18;/rC:2.5768,.9839,-.5589;-2.9311,-.6971,.2904;-1.5064,-.7112,-2.604;-1.9733,2.2705,-.2502;1.2486,-.0218,2.4068;2.1118,-1.7647,.2619;-1.2317,4.8505,-.5267;.1539,-.7151,4.7643;2.8905,-3.6855,-1.4347;3.2716,3.5568,-.8427;-4.009,-1.3591,2.6813;-.7049,-2.6798,-4.2844;1.3851,5.5006,-.8093;-2.4695,-1.3836,4.9147;1.4977,-4.1549,-3.7098;.2737,1.5303,-.3774;-.8008,-.3631,1.2668;.2832,-1.1518,-1.1242;1.6325,1.8867,-.5472;-2.1703,-.7036,1.3543;-.4428,-1.4117,-2.3086;-.7041,2.5528,-.3892;-.016,-.3543,2.4426;1.4143,-1.9499,-.8282;-.3274,3.9054,-.5356;-.583,-.7081,3.6837;1.8316,-2.9674,-1.7095;2.0113,3.2365,-.6978;-2.7414,-1.0472,2.5985;-.0329,-2.4379,-3.1887;1.0312,4.2477,-.6849;-1.946,-1.0557,3.7621;1.1077,-3.2111,-2.8926;-.1309,.0127,-.1225;

> <Formula>
C18 B F15

> <Mw>
511.9796

> <SMILES>
FC1C(=C(C(=C(C=1B(C1C(=C(C(=C(C=1F)F)F)F)F)C1C(=C(C(=C(C=1F)F)F)F)F)F)F)F)F

> <CSID>
505917

$$$$
