57668468
  -OEChem-08022207573D

 68 73  0     0  0  0  0  0  0999 V2000
    3.6356   -0.0268   -1.1072 P   0  0  0  0  0  0  0  0  0  0  0  0
   -2.6763   -0.0025    0.0334 Si  0  0  0  0  0  0  0  0  0  0  0  0
    3.9335   -0.0691   -2.6060 O   0  0  0  0  0  0  0  0  0  0  0  0
   -0.8474   -0.0095   -0.2968 C   0  0  0  0  0  0  0  0  0  0  0  0
   -3.6126   -0.0084   -1.5777 C   0  0  0  0  0  0  0  0  0  0  0  0
   -3.0928    1.5276    1.0024 C   0  0  0  0  0  0  0  0  0  0  0  0
   -3.1595   -1.5186    0.9937 C   0  0  0  0  0  0  0  0  0  0  0  0
    1.8979   -0.0195   -0.7927 C   0  0  0  0  0  0  0  0  0  0  0  0
   -0.3454    0.5870   -1.4535 C   0  0  0  0  0  0  0  0  0  0  0  0
    0.0234   -0.6108    0.6120 C   0  0  0  0  0  0  0  0  0  0  0  0
    1.0273    0.5820   -1.7015 C   0  0  0  0  0  0  0  0  0  0  0  0
    1.3959   -0.6158    0.3641 C   0  0  0  0  0  0  0  0  0  0  0  0
   -3.9787   -1.2187   -2.1662 C   0  0  0  0  0  0  0  0  0  0  0  0
   -2.1483    2.0851    1.8641 C   0  0  0  0  0  0  0  0  0  0  0  0
   -4.2401   -1.4705    1.8742 C   0  0  0  0  0  0  0  0  0  0  0  0
   -3.9470    1.1967   -2.1953 C   0  0  0  0  0  0  0  0  0  0  0  0
   -4.3493    2.1183    0.8684 C   0  0  0  0  0  0  0  0  0  0  0  0
   -2.4420   -2.7041    0.8342 C   0  0  0  0  0  0  0  0  0  0  0  0
    4.3767   -1.4585   -0.3016 C   0  0  0  0  0  0  0  0  0  0  0  0
    4.3761    1.4488   -0.3844 C   0  0  0  0  0  0  0  0  0  0  0  0
   -4.6794   -1.2241   -3.3723 C   0  0  0  0  0  0  0  0  0  0  0  0
   -2.4602    3.2335    2.5918 C   0  0  0  0  0  0  0  0  0  0  0  0
   -4.6032   -2.6078    2.5954 C   0  0  0  0  0  0  0  0  0  0  0  0
   -4.6478    1.1915   -3.4015 C   0  0  0  0  0  0  0  0  0  0  0  0
   -4.6614    3.2668    1.5962 C   0  0  0  0  0  0  0  0  0  0  0  0
   -2.8051   -3.8416    1.5553 C   0  0  0  0  0  0  0  0  0  0  0  0
   -5.0140   -0.0190   -3.9899 C   0  0  0  0  0  0  0  0  0  0  0  0
   -3.7167    3.8244    2.4579 C   0  0  0  0  0  0  0  0  0  0  0  0
   -3.8859   -3.7935    2.4359 C   0  0  0  0  0  0  0  0  0  0  0  0
    4.8170   -1.3652    1.0187 C   0  0  0  0  0  0  0  0  0  0  0  0
    5.5301    1.9959   -0.9453 C   0  0  0  0  0  0  0  0  0  0  0  0
    4.5101   -2.6595   -0.9981 C   0  0  0  0  0  0  0  0  0  0  0  0
    3.7954    2.0439    0.7356 C   0  0  0  0  0  0  0  0  0  0  0  0
    5.3908   -2.4732    1.6425 C   0  0  0  0  0  0  0  0  0  0  0  0
    6.1036    3.1380   -0.3861 C   0  0  0  0  0  0  0  0  0  0  0  0
    5.0838   -3.7674   -0.3744 C   0  0  0  0  0  0  0  0  0  0  0  0
    4.3687    3.1859    1.2947 C   0  0  0  0  0  0  0  0  0  0  0  0
    5.5241   -3.6742    0.9460 C   0  0  0  0  0  0  0  0  0  0  0  0
    5.5229    3.7329    0.7338 C   0  0  0  0  0  0  0  0  0  0  0  0
   -0.9898    1.0727   -2.1808 H   0  0  0  0  0  0  0  0  0  0  0  0
   -0.3219   -1.0540    1.5422 H   0  0  0  0  0  0  0  0  0  0  0  0
    1.4092    1.0539   -2.6021 H   0  0  0  0  0  0  0  0  0  0  0  0
    2.0483   -1.0747    1.0978 H   0  0  0  0  0  0  0  0  0  0  0  0
   -3.7298   -2.1788   -1.7236 H   0  0  0  0  0  0  0  0  0  0  0  0
   -1.1623    1.6518    2.0047 H   0  0  0  0  0  0  0  0  0  0  0  0
   -4.8281   -0.5687    2.0202 H   0  0  0  0  0  0  0  0  0  0  0  0
   -3.6489    2.1606   -1.7920 H   0  0  0  0  0  0  0  0  0  0  0  0
   -5.1277    1.6966    0.2386 H   0  0  0  0  0  0  0  0  0  0  0  0
   -1.6161   -2.7950    0.1340 H   0  0  0  0  0  0  0  0  0  0  0  0
   -4.9624   -2.1665   -3.8323 H   0  0  0  0  0  0  0  0  0  0  0  0
   -1.7259    3.6666    3.2649 H   0  0  0  0  0  0  0  0  0  0  0  0
   -5.4459   -2.5714    3.2796 H   0  0  0  0  0  0  0  0  0  0  0  0
   -4.9007    2.1295   -3.8872 H   0  0  0  0  0  0  0  0  0  0  0  0
   -5.6427    3.7220    1.4990 H   0  0  0  0  0  0  0  0  0  0  0  0
   -2.2518   -4.7671    1.4254 H   0  0  0  0  0  0  0  0  0  0  0  0
   -5.5573   -0.0232   -4.9303 H   0  0  0  0  0  0  0  0  0  0  0  0
   -3.9604    4.7170    3.0265 H   0  0  0  0  0  0  0  0  0  0  0  0
   -4.1701   -4.6797    2.9957 H   0  0  0  0  0  0  0  0  0  0  0  0
    4.7155   -0.4492    1.5887 H   0  0  0  0  0  0  0  0  0  0  0  0
    5.9926    1.5376   -1.8144 H   0  0  0  0  0  0  0  0  0  0  0  0
    4.1662   -2.7432   -2.0247 H   0  0  0  0  0  0  0  0  0  0  0  0
    2.9038    1.6344    1.1968 H   0  0  0  0  0  0  0  0  0  0  0  0
    5.7310   -2.4017    2.6715 H   0  0  0  0  0  0  0  0  0  0  0  0
    7.0029    3.5632   -0.8220 H   0  0  0  0  0  0  0  0  0  0  0  0
    5.1864   -4.7031   -0.9162 H   0  0  0  0  0  0  0  0  0  0  0  0
    3.9180    3.6481    2.1681 H   0  0  0  0  0  0  0  0  0  0  0  0
    5.9699   -4.5372    1.4319 H   0  0  0  0  0  0  0  0  0  0  0  0
    5.9697    4.6216    1.1698 H   0  0  0  0  0  0  0  0  0  0  0  0
  1  3  2  0  0  0  0
  1  8  1  0  0  0  0
  1 19  1  0  0  0  0
  1 20  1  0  0  0  0
  2  4  1  0  0  0  0
  2  5  1  0  0  0  0
  2  6  1  0  0  0  0
  2  7  1  0  0  0  0
  4  9  2  0  0  0  0
  4 10  1  0  0  0  0
  5 13  2  0  0  0  0
  5 16  1  0  0  0  0
  6 14  2  0  0  0  0
  6 17  1  0  0  0  0
  7 15  2  0  0  0  0
  7 18  1  0  0  0  0
  8 11  2  0  0  0  0
  8 12  1  0  0  0  0
  9 11  1  0  0  0  0
  9 40  1  0  0  0  0
 10 12  2  0  0  0  0
 10 41  1  0  0  0  0
 11 42  1  0  0  0  0
 12 43  1  0  0  0  0
 13 21  1  0  0  0  0
 13 44  1  0  0  0  0
 14 22  1  0  0  0  0
 14 45  1  0  0  0  0
 15 23  1  0  0  0  0
 15 46  1  0  0  0  0
 16 24  2  0  0  0  0
 16 47  1  0  0  0  0
 17 25  2  0  0  0  0
 17 48  1  0  0  0  0
 18 26  2  0  0  0  0
 18 49  1  0  0  0  0
 19 30  2  0  0  0  0
 19 32  1  0  0  0  0
 20 31  2  0  0  0  0
 20 33  1  0  0  0  0
 21 27  2  0  0  0  0
 21 50  1  0  0  0  0
 22 28  2  0  0  0  0
 22 51  1  0  0  0  0
 23 29  2  0  0  0  0
 23 52  1  0  0  0  0
 24 27  1  0  0  0  0
 24 53  1  0  0  0  0
 25 28  1  0  0  0  0
 25 54  1  0  0  0  0
 26 29  1  0  0  0  0
 26 55  1  0  0  0  0
 27 56  1  0  0  0  0
 28 57  1  0  0  0  0
 29 58  1  0  0  0  0
 30 34  1  0  0  0  0
 30 59  1  0  0  0  0
 31 35  1  0  0  0  0
 31 60  1  0  0  0  0
 32 36  2  0  0  0  0
 32 61  1  0  0  0  0
 33 37  2  0  0  0  0
 33 62  1  0  0  0  0
 34 38  2  0  0  0  0
 34 63  1  0  0  0  0
 35 39  2  0  0  0  0
 35 64  1  0  0  0  0
 36 38  1  0  0  0  0
 36 65  1  0  0  0  0
 37 39  1  0  0  0  0
 37 66  1  0  0  0  0
 38 67  1  0  0  0  0
 39 68  1  0  0  0  0
M  END
> <PUBCHEM_COMPOUND_CID>
57668468

> <PUBCHEM_CONFORMER_RMSD>
1

> <PUBCHEM_CONFORMER_DIVERSEORDER>
1
2
5
6
3
4
8
7

> <PUBCHEM_MMFF94_PARTIAL_CHARGES>
68
1 1.12
10 -0.15
11 -0.15
12 -0.15
13 -0.15
14 -0.15
15 -0.15
16 -0.15
17 -0.15
18 -0.15
19 -0.14
2 0.88
20 -0.14
21 -0.15
22 -0.15
23 -0.15
24 -0.15
25 -0.15
26 -0.15
27 -0.15
28 -0.15
29 -0.15
3 -0.7
30 -0.15
31 -0.15
32 -0.15
33 -0.15
34 -0.15
35 -0.15
36 -0.15
37 -0.15
38 -0.15
39 -0.15
4 -0.22
40 0.15
41 0.15
42 0.15
43 0.15
44 0.15
45 0.15
46 0.15
47 0.15
48 0.15
49 0.15
5 -0.22
50 0.15
51 0.15
52 0.15
53 0.15
54 0.15
55 0.15
56 0.15
57 0.15
58 0.15
59 0.15
6 -0.22
60 0.15
61 0.15
62 0.15
63 0.15
64 0.15
65 0.15
66 0.15
67 0.15
68 0.15
7 -0.22
8 -0.14
9 -0.15

> <PUBCHEM_EFFECTIVE_ROTOR_COUNT>
7

> <PUBCHEM_PHARMACOPHORE_FEATURES>
7
1 3 acceptor
6 19 30 32 34 36 38 rings
6 20 31 33 35 37 39 rings
6 4 8 9 10 11 12 rings
6 5 13 16 21 24 27 rings
6 6 14 17 22 25 28 rings
6 7 15 18 23 26 29 rings

> <PUBCHEM_HEAVY_ATOM_COUNT>
39

> <PUBCHEM_ATOM_DEF_STEREO_COUNT>
0

> <PUBCHEM_ATOM_UDEF_STEREO_COUNT>
0

> <PUBCHEM_BOND_DEF_STEREO_COUNT>
0

> <PUBCHEM_BOND_UDEF_STEREO_COUNT>
0

> <PUBCHEM_ISOTOPIC_ATOM_COUNT>
0

> <PUBCHEM_COMPONENT_COUNT>
1

> <PUBCHEM_CACTVS_TAUTO_COUNT>
1

> <PUBCHEM_CONFORMER_ID>
036FF37400000001

> <PUBCHEM_MMFF94_ENERGY>
105.3702

> <PUBCHEM_FEATURE_SELFOVERLAP>
35.527

> <PUBCHEM_SHAPE_FINGERPRINT>
11443803 9 17557136200416953225
12608794 3 18045787788364954009
12633046 712 18336553733130938046
13560911 23 18342167839897865344
14118638 360 18114473348092779914
14950920 106 18337681831987177176
15131766 46 16342310257365359512
15289351 153 18201428247753296328
15347590 135 18122354737871947120
15361156 5 18056490456610553950
15392192 29 18122356670945800822
15444296 121 17911258126234431192
15513586 35 17916314998669174777
16114785 44 17917445241562581273
17809404 112 17894621591503349700
19958102 18 17967527978759786327
21033648 144 18260829297778857060
21033648 29 17022902319929936068
23559900 14 17749383737963457902
24771293 8 18129649804955970338
249057 25 18059277786963564068
32027 91 17968929774501752418
376196 1 17337901243859894017
4015057 19 18340473513226324163
460360 51 18113618997471881182
497634 4 18042710401933331279
5104073 3 18334584529391087658
9981440 41 17343231723348547265

> <PUBCHEM_SHAPE_MULTIPOLES>
818.79
16.03
5.43
3.5
16.06
0.44
2.35
-0.44
1.44
2.96
-4.83
-7.43
-0.1
-0.11

> <PUBCHEM_SHAPE_SELFOVERLAP>
1778.602

> <PUBCHEM_SHAPE_VOLUME>
443.6

> <PUBCHEM_COORDINATE_TYPE>
2
5
10

$$$$
